LTspice 24.0.12 for Windows
Circuit: * C:\Dokumente\Aufzeichnungen\Hardware Entwicklung\STASIS\GIT_Hardware\Amplifier\Spice\HPA\MRF1k80H_Board_50Ohm_longer_trace_no_Inductor_input_change_RO4350_Broad_input.asc
Start Time: Wed Feb 12 13:03:14 2025
solver = Normal
Maximum thread count: 22
tnom = 27
temp = 27
method = modified trap
WARNING: Node N004 is floating.

.OP point found by inspection.
Total elapsed time: 0.097 seconds.

